 500
CUB 21.799
 Ag -7.738048077 2.278855801 6.113060474
 Ag -10.82817364 -9.347260475 -3.093880653
 Ag 6.085238457 9.661019325 7.495597839
 Ag 8.663489342 -7.722814083 -5.484485626
 Ag -5.473513126 5.614562988 1.733325481
 Ag 9.045466423 -6.791752815 -8.504641533
 Ag 4.560524940 -3.771458149 -5.168112755
 Ag -0.2337692082 -1.623323679 8.246595383
 Ag -6.512560844 -8.738826752 -3.366094589
 Ag 2.829813480 3.878758669 9.166632652
 Ag 8.085771561 5.868185520 -7.042551041
 Ag -9.724367142 6.935864925 -5.250856400
 Ag 9.624221802 1.880514741 9.420309067
 Ag 5.187455177 3.128420353 1.884911895
 Ag -4.595312595 -4.720784187 3.679040432
 Ag 3.675296545 1.113839984 -9.011832237
 Ag -7.833239555 -4.090781212 0.4367880821
 Ag 0.1758474708 2.950288534 6.592327118
 Ag 0.7809796333 -3.958764315 -0.9816982150
 Ag 10.66953850 8.749866486 3.743529320
 Ag -8.231445312 -1.218482614 -7.404423237
 Ag -6.830539703 -10.42743301 8.401684761
 Ag -4.011537552 3.178115845 0.8372237086
 Ag 1.555356383 10.44719982 3.486093283
 Ag -8.847766876 -6.192529678 9.856422424
 Ag -8.038172722 -8.610730171 0.3432266414
 Ag -4.996413708 -7.150397778 1.888828874
 Ag -8.461439133 0.8354140520 8.736798286
 Ag -0.2315895706 0.5305092782E-01 -0.5550882220
 Ag 4.409142971 -8.020414352 8.628637314
 Ag -2.780434608 -9.934160233 3.734064102
 Ag 8.717359543 2.614071131 -0.8735459447
 Ag 4.087672234 1.455863714 -1.564983368
 Ag -1.060491085 -7.669851303 3.057614088
 Ag -0.2244347930 -7.544357300 -2.496808290
 Ag 7.518123627 8.729116440 3.686471462
 Ag -5.887999058 4.607482910 -0.8628306389
 Ag -2.941560030 -7.809905529 -3.719181299
 Ag 0.3195297346E-01 5.590697289 7.812331200
 Ag 2.882857323 -5.151288033 -7.320542336
 Ag 10.23447323 -4.185480118 -9.728575706
 Ag 4.096490383 6.320396900 -1.058054805
 Ag -6.796869278 2.915727854 1.548448324
 Ag -9.438244820 -1.061083674 -2.835457325
 Ag 5.948225975 10.57559967 10.30095100
 Ag -1.360535145 10.28360748 -10.36372662
 Ag -1.229740500 -10.24740791 1.065137744
 Ag -3.510168076 2.129363060 6.739157677
 Ag -5.319755554 -6.831533432 -5.203290939
 Ag 4.775501728 -3.356810093 3.609570265
 Ag 8.542557716 -2.654279232 -3.864733934
 Ag -4.194397449 -7.231361389 -10.65926075
 Ag 6.076275826 -2.274438143 6.214198112
 Ag -8.491019249 7.504430294 9.009492874
 Ag -4.334856510 -10.14024258 -4.792014599
 Ag 9.334090233 2.977434397 6.129466057
 Ag 0.4331523478 -4.701585770 2.993949652
 Ag -5.774407387 -10.86036968 5.600399017
 Ag -7.628981113 1.061952233 -4.306406498
 Ag -6.901780605 -1.287006617 -0.8584036827
 Ag -9.519537926 -2.938726664 -4.999719143
 Ag 6.480156898 -5.390483856 2.263248920
 Ag -7.798705101 -9.013446808 -10.67380714
 Ag -10.16807079 -9.504230499 7.907990456
 Ag -2.402686834 -6.033514500 0.7441536188
 Ag 9.658167839 -9.643950462 -7.583910942
 Ag 0.8887544274 5.219041824 -7.977285862
 Ag -1.940808535 9.517975807 6.613101006
 Ag 2.379245996 -0.9643729329 -1.785466671
 Ag 3.066698790 -3.586675167 -2.720675468
 Ag 2.729189634 -2.168256044 -6.712162495
 Ag -8.842852592 -3.503554344 4.110581875
 Ag -5.538305759 4.313199997 5.996661186
 Ag 6.827424526 -6.573758602 5.296977043
 Ag 9.830691338 9.906335831 -9.308095932
 Ag -7.551264763 -3.603621960 -2.451344728
 Ag -10.32988071 -8.345294952 -5.788439751
 Ag 3.699909210 -4.130821705 0.5321227759E-01
 Ag 2.762914658 -6.513725758 -9.979135513
 Ag 8.327342033 -3.875068188 8.351738930
 Ag -3.082740068 1.589280725 -4.672150612
 Ag 8.543027878 4.505468845 10.52727699
 Ag -1.066648841 -2.615427256 -7.013880253
 Ag -5.832021713 -4.419633865 6.488521099
 Ag -3.326588154 3.833438635 -9.178544044
 Ag -9.017245293 9.669228554 -9.871338844
 Ag -1.253642440 -4.783129692 -9.050438881
 Ag -2.295635462 -1.314923644 4.919240952
 Ag 10.09222603 -3.165551901 4.571613312
 Ag -8.125888824 -6.600471020 3.111007452
 Ag -4.832496166 -4.266305923 0.6348922253
 Ag -9.686413765 1.419293046 -8.137331009
 Ag 6.836766243 -8.617329597 1.681413174
 Ag 3.285809755 -10.04862976 -8.675562859
 Ag -5.586343765 -6.319015980 -8.161505699
 Ag -8.271573067 -7.854777336 6.216313362
 Ag -2.831122398 5.449086666 9.017997742
 Ag 7.826912403 5.697383404 3.375597000
 Ag -7.647474766 -5.103254318 -6.312711716
 Ag -3.822597980 8.695934296 -5.106155872
 Ge -4.640578270 -3.346227407 -10.81961918
 Ge -5.909874916 3.336121321 -8.739892960
 Ge -3.645095825 6.256649017 5.851842880
 Ge -6.608692646 10.48239613 1.838529944
 Ge 8.609533310 2.301921844 2.524683952
 Ge 10.35900593 -3.527564049 -1.020445943
 Ge 1.274177909 8.460182190 1.864208698
 Ge 8.449444771 -0.5354861021 -8.762803078
 Ge -5.221764565 -8.322230339 5.173614979
 Ge -5.016691208 1.450370073 9.766044617
 Ge -5.445767403 -6.705449581 -1.889983296
 Ge -6.570086002 10.35881138 -4.483407497
 Ge -1.640406966 6.966857910 -10.21407127
 Ge -9.579500198 2.930157423 3.450237036
 Ge 3.228989124 10.25629711 -2.008755684
 Ge 7.785443783 7.234223366 -1.065320849
 Ge -5.476397514 7.581237793 -9.163179398
 Ge -9.576200485 -2.163671017 7.492281914
 Ge 7.531683445 -5.454902649 -1.165031314
 Ge 5.047850132 -8.395490646 -4.638944626
 Ge -1.659511685 -5.045329094 5.745239258
 Ge 6.191074371 -4.643435955 -9.978811264
 Ge 9.414756775 -7.846895218 3.471938372
 Ge 1.772184849 0.5391696095 -10.86768246
 Ge 1.635805368 -1.932065725 5.265733719
 Ge 0.3098479509 6.204086304 4.603357315
 Ge -2.574724674 -7.823686123 -8.464350700
 Ge 3.529571533 4.018574715 -8.589197159
 Ge 8.776144028 10.47957039 -5.793054581
 Ge -5.559772968 5.639970779 -3.982619047
 Ge 7.542808056 -3.034518957 1.279669404
 Ge -8.413851738 -5.974641800 -3.072003603
 Ge 1.803379416 7.055931091 -10.63738537
 Ge 10.02126598 0.5845144987 -4.664972305
 Ge 7.245182037 0.8886234164 -3.657462358
 Ge -2.138102293 -2.145820141 2.289859533
 Ge 2.523692369 3.843198299 4.366878510
 Ge -6.401053905 -0.5124152899 7.662195206
 Ge 10.56545734 -5.925776005 -5.669868946
 Ge -1.953672290 8.135292053 -7.147767067
 Ge -6.315992832 4.782561779 9.707983971
 Ge 0.2558311224 -8.091276169 6.768044472
 Ge -8.964611053 7.461871624 0.5227049068E-01
 Ge 3.498536825 -1.447129369 -4.156813622
 Ge 1.677197576 9.545701027 -6.724774361
 Ge 5.227681637 8.031824112 10.14575195
 Ge -10.24301147 0.9067499042 0.6080505252
 Ge -5.694925308 -1.430851936 2.598247290
 Ge 10.20456219 -2.457834482 -6.782351971
 Ge -7.612566948 7.023901939 -3.543020725
 Ge 4.377922535 -6.727884769 2.801969290
 Ge -2.379493952 8.320088387 2.593907833
 Ge 5.654432774 5.243947983 7.415657997
 Ge 4.131821632 -10.76113892 3.240947485
 Ge -1.897150874 -3.729074955 9.068774223
 Ge -0.4994165301 8.612280846 -3.263520002
 Ge 1.210991263 1.928515196 -4.185886860
 Ge -4.078953743 -1.336081028 8.222167015
 Ge 10.62493420 -5.746424198 6.409207821
 Ge -5.067750454 9.232621193 -7.313939571
 Ge 0.9100899100 0.4302919507 2.884578705
 Ge 10.73421288 -4.665503979 2.589018583
 Ge 2.481428862 7.228014946 -5.916876316
 Ge 8.244443893 6.857854843 -10.26932812
 Ge 3.112460852 0.4625871181 7.632755280
 Ge -6.917122841 9.248143196 -0.6751980782
 Ge 5.823167801 -8.227108955 -8.304341316
 Ge -2.718144894 4.381460667 3.172146797
 Ge 5.601529598 3.215450764 -5.551471710
 Ge -2.884014368 -8.973655701 8.110302925
 Ge -4.485675812 7.335800171 8.630043983
 Ge 2.761236191 7.043976784 7.133557320
 Ge 1.054419994 -4.470229149 8.039324760
 Ge -9.253197670 3.225380421 -1.714674354
 Ge -1.490299940 1.259616017 10.03596783
 Ge -1.471013427 2.987213850 -1.614877701
 Ge 2.501383305 10.62589550 10.01210308
 Ge -5.295427322 8.709347725 10.49590397
 Ge 10.19027042 -8.899031639 0.1942565292
 Ge -4.254365921 1.040716290 -2.526221275
 Ge -7.608812332 3.769071102 -5.814176559
 Ge 7.688405514 -9.128854752 -2.349130154
 Ge -2.794815302 -10.55212975 -2.657064199
 Ge -5.915514469 -0.8667828441 -4.549815178
 Ge 4.080475807 -4.056687355 9.017765045
 Ge -9.355587959 -7.266950607 -8.165394783
 Ge 7.613601208 5.291430950 -3.545115709
 Ge 10.44050980 -9.423665047 -10.09846973
 Ge -7.542270184 8.127855301 3.857771635
 Ge 3.440040827 0.8587042801E-02 0.5477780104
 Ge 0.7308191061 9.788631439 7.039154053
 Ge -8.654830933 10.31599998 -7.495856762
 Ge 5.372178078 -0.1219735816 -6.455935001
 Ge 8.815053940 3.540332556 -8.036415100
 Ge 5.346061230 9.040620804 0.5853671432
 Ge -9.130554199 -10.14693928 4.063221931
 Ge 6.168557644 1.839952588 7.147417068
 Ge 7.488976479 -1.224348545 -0.5241546631
 Ge 2.695147514 -8.755789757 -5.309856415
 Ge 6.919293880 -3.965331793 -6.651470661
 Ge 2.020568371 4.075462818 -1.367418885
 Ge -9.328986168 6.040240288 5.892237663
 Ge 0.5377320051 3.962293863 10.49652290
 Ge -10.42542934 -0.9296840429 10.74334240
 Ge 3.598324299 -9.673198700 6.701641083
 Ge 1.321950436 -2.897265196 -10.43637848
 Ge -3.249545336 8.970102310 0.2794112265
 Ge -7.923922539 4.526717186 4.592720509
 Ge 4.541834831 -1.493717194 -9.259590149
 Ge 9.750683784 9.674236298 -0.7748257518
 Ge 0.5593914986 -4.582096100 -3.660459757
 Ge -10.39146233 6.370591164 -7.784987450
 Ge 8.574040413 -7.104673386 9.238953590
 Ge 3.505097151 -5.631490707 5.994688988
 Ge -2.555416584 4.894704342 -5.568820477
 Ge 5.887385368 2.229609489 -9.658322334
 Ge 7.615893364 -10.05775833 8.251633644
 Ge 6.008573055 -0.6863933057E-01 3.351623058
 Ge 4.974625111 10.05557537 -5.005694866
 Ge -8.800194740 3.365154505 -10.81401730
 Ge -4.647294044 -4.462687969 -4.577699661
 Ge -5.457650661 -10.19156933 -8.072535515
 Ge 0.3983452320 -8.111845970 9.714541435
 Ge 10.85000324 6.441713810 -2.874475002
 Ge -0.4784469903 4.135368824 1.904079437
 Ge 1.465241671 5.420170307 -4.512230396
 Ge 8.864542961 7.001930237 1.358690262
 Ge -0.4934807122 1.165024161 -7.295789242
 Ge -9.907569885 -10.83688354 -5.533289433
 Ge -5.012015343 3.373154163 3.453065872
 Ge 8.962098122 6.767322540 6.902932644
 Ge 0.2018876374 -7.458280087 -6.415058136
 Ge -4.189310551 -9.898989677 -0.7686802745
 Ge 10.41024590 4.219593048 -5.549805164
 Ge 0.5030794814E-01 -1.290796757 -3.253769398
 Ge 6.383406639 9.286869049 -8.080676079
 Ge -2.215405464 -4.283354759 -1.744189262
 Ge 1.503513098 -7.605579376 0.6774127483
 Ge -8.016813278 -3.074335814 -10.79632282
 Ge -3.827272654 0.3502994478 -7.566491127
 Ge -9.134525299 -0.9550400972 1.951364160
 Ge -1.851970315 -10.44066429 -5.823027134
 Ge 10.65863132 -6.545476913 -0.6375989914
 Ge -2.693228960 -3.005724430 -5.067092419
 Ge 0.7929503322 2.036358833 -1.735104322
 Ge -5.434197426 -3.004065275 -8.604380608
 Ge 6.467957973 -2.178921700 -10.77366924
 Ge -10.06765652 -0.3493055105 5.649775982
 Ge -2.131240606 1.168979168 4.077651501
 Ge -2.224715233 4.729002476 -3.172372580
 Ge 3.081966400 0.8130510449 -5.537110806
 Ge 0.9540835023 -2.102809429 2.457942247
 Ge -10.55346107 5.784169197 10.54386902
 Ge 0.8811512589 -9.097452164 -8.245554924
 Ge -4.912089825 -1.085417271 4.914791107
 Ge 10.16015434 7.659101486 8.993659019
 Ge -0.1979151368 6.179658413 -2.920437574
 Ge 8.409721375 -1.103413820 6.508152962
 Ge 4.249768257 6.465754509 2.871963501
 Ge -9.599764824 5.262090683 8.217501640
 Ge 4.939865589 2.738248825 9.942346573
 Ge -1.731813669 8.133711815 9.380612373
 Ge 3.350657225 1.536571622 5.410647869
 Ge -7.122681141 5.646556377 -9.029858589
 Ge 10.15844440 9.959569931 5.989435196
 Ge 4.141798019 -5.888186455 -2.341509581
 Ge -3.755969048 10.58930111 10.70060062
 Ge 0.6939070225 10.07927608 -1.706607223
 S  3.698052168 -7.684154034 -7.517079353
 S  2.853716135 -8.673958778 -0.7947422862
 S  0.6536725909E-01 -6.511934757 5.014337540
 S  -4.073060989 -1.837976217 1.011709213
 S  -0.3928182423 8.376426697 -8.905304909
 S  9.706154823 -0.7129377127 4.657491684
 S  5.763788700 4.388826847 -8.994747162
 S  -1.685676455 -6.313138962 -6.935704708
 S  2.512820721 -7.673034191 -2.570156574
 S  -10.11045456 -5.054488182 -7.467808247
 S  4.756588459 8.224121094 4.168275833
 S  -9.379483223 3.510174036 -4.442803383
 S  -7.943149090 5.953948498 -1.491148472
 S  4.872701168 7.491589546 6.073300362
 S  -0.4368323386 -2.155411959 0.4989137948
 S  -1.956960797 3.301859140 5.135517120
 S  -3.492663145 -7.703150749 -0.9553949237
 S  8.125638962 8.793120384 6.103688240
 S  -7.206175804 -7.748482227 8.624860764
 S  9.910220146 -2.906120777 1.272162080
 S  3.871514559 3.744881868 -0.2385481745
 S  -1.899230123 4.467125416 0.5782841146E-01
 S  3.246321440 9.611671448 0.3081788421
 S  -4.389182568 6.219708443 -5.822186947
 S  8.241904259 2.192187786 -9.858630180
 S  -8.081748962 -0.8983301520 -10.77822971
 S  -6.031195164 8.663174629 -2.968424559
 S  0.5253412724 7.756966114 9.094781876
 S  -9.541830063 -0.4207219779 -5.272315979
 S  -7.635593414 -3.532153130 -8.581651688
 S  -5.315784931 7.889245987 0.3290546834
 S  -5.673253059 -0.8483385444 -8.390866280
 S  6.764044285 3.523789167 8.726601601
 S  -10.25432491 1.567001343 -10.83509922
 S  -6.466792107 -6.330443859 0.1449889243
 S  -0.4274154603 9.385022163 -5.503467560
 S  9.474515915 0.5439607501 1.531152606
 S  -5.853977680 2.054133415 -1.120926619
 S  -6.567255974 -3.115725517 -4.840654850
 S  -0.5033927560 -8.870326042 -4.779390335
 S  -6.721405983 -3.477659464 2.729105473
 S  -1.661708117 -5.434808254 -3.732556343
 S  -10.38959885 -4.945183754 -3.774603367
 S  10.13711452 2.097307920 -6.570459366
 S  4.801748276 -5.875517368 10.52733898
 S  3.911738873 -9.582765579 10.61329079
 S  -3.058918953 -4.931287766 10.87049770
 S  8.301424980 1.031614900 7.471532822
 S  -2.215283871 -4.432844162 2.659761906
 S  -8.860535622 9.509242058 2.693573713
 S  3.069464445 9.886239052 7.946368217
 S  0.8205479980 -4.777419567 10.35927868
 S  3.743466854 6.331992149 10.07047844
 S  -4.319730282 8.399713516 6.620703697
 S  7.543501377 -8.646254539 4.165195942
 S  -6.760282516 2.055203915 -10.44088459
 S  0.3986675739 -7.462169170 -9.746157646
 S  -7.734960079 1.367413163 -1.712530494
 S  -7.152677059 8.973933220 -6.331271172
 S  -7.306131840 9.458106995 9.977255821
 S  -7.764017582 6.115601540 2.841535091
 S  -0.8961453438 1.542482018 2.095024109
 S  9.127574921 3.685928106 -3.580374718
 S  -10.09557533 1.548926473 6.841405869
 S  -0.5737639070 6.949053764 2.432622910
 S  1.462226033 -9.982309341 5.700881958
 S  -9.879790306 -3.876315594 10.22156334
 S  5.614806652 6.848175049 1.099744558
 S  4.690463066 -3.623666286 -8.353244781
 S  -0.1303196102 8.890046120 0.1828695461E-01
 S  -4.037622929 5.780458450 -2.302988768
 S  10.85924244 -0.9431635141 -8.608717918
 S  1.060681939 0.9154762626 5.139471531
 S  5.830371380 -0.9587082267 -4.292606831
 S  -10.77066422 4.282834053 -8.683105469
 S  8.729656219 -4.799369812 5.982652664
 S  3.553750277 3.368945122 -6.314403057
 S  3.317824364 -2.235867500 10.63258457
 S  -8.070264816 3.573002338 8.595441818
 S  0.2170589268 2.049916983 -9.953471184
 S  -9.004254341 0.6726558805 3.796707153
 S  0.6392875910 -2.698875904 -4.987801552
 S  -2.152773857 -2.176700354 -2.866590738
 S  2.574947596 10.68167114 -4.827201843
 S  7.245398521 8.729501724 -6.069640636
 S  -7.208477020 -9.249561310 2.762428999
 S  8.943228722 -6.118942738 2.109497547
 S  -8.297101974 -10.44115067 6.256496429
 S  -10.84851646 -7.193338871 -10.00266647
 S  5.534859180 -9.369496346 -2.637248993
 S  -3.687463760 6.577753067 3.512277842
 S  -7.027506828 -0.9185273200E-01 1.370262980
 S  0.3938946724 -10.50640488 9.793440819
 S  4.404290676 -0.5036320686 4.806491375
 S  -3.489013433 6.449627876 -8.942721367
 S  1.827127814 0.2175838500 -7.382906914
 S  6.394388676 9.065534592 -1.357332110
 S  -8.021646500 -7.268673420 -4.939626217
 S  -2.692630291 8.936521530 -2.846795082
 S  -1.787817121 -0.5948376060 -8.261686325
 S  8.371280670 -1.146350741 10.75037003
 S  10.45492268 -9.453228951 2.351049185
 S  3.072600365 4.444571972 -3.341595411
 S  8.731829643 -0.9769286513 -5.782733917
 S  -1.177061439 3.486324549 8.932699203
 S  -5.617205143 0.9085299969 5.917613029
 S  -1.734351516 -9.575054169 6.375177383
 S  9.465387344 7.519648075 -8.379223824
 S  3.049353838 7.910691738 -2.753321648
 S  5.998983383 -2.694716215 8.906750679
 S  -1.974490523 -8.332836151 9.971020699
 S  -7.511574745 5.779549122 -6.705543041
 S  3.119194508 -2.043855429 1.584044218
 S  8.714386940 8.803833961 10.31551266
 S  -5.611853123 9.261608124 3.657637596
 S  -1.469627976 9.816448212 3.953806639
 S  6.853535175 1.755159616 -6.576057911
 S  -9.286902428 -2.404564381 -0.7630510330
 S  -0.5698729753 0.5402752757 -4.704102516
 S  2.709045649 9.195866585 -10.14335537
 S  2.309578180 4.611134052 6.616448402
 S  8.410992622 -3.057901382 -8.271724701
 S  4.318041801 -8.790254593 1.879451871
 S  8.597594261 7.344876289 -3.295292377
 S  -9.024074554 7.002608299 -9.660549164
 S  6.700803757 6.902447224 8.732019424
 S  -4.123243809 1.315736175 2.899222136
 S  -3.375245810 1.679138780 -10.42664814
 S  1.422140598 1.389560580 8.740457535
 S  5.628256798 0.4824708998 1.274887085
 S  6.631515026 -9.009023666 -6.149322510
 S  10.69045830 -6.939436436 8.337369919
 S  -4.228521824 -4.348590851 -7.404631615
 S  -9.352134705 -4.442121506 6.500892639
 S  -7.586344719 -6.740877628 -9.530933380
 S  2.498428345 -5.845304489 1.688730121
 S  0.6602258235E-01 -1.154699206 10.78948402
 S  8.305861473 -5.302322865 10.42309952
 S  8.062491417 -9.725180626 -0.2070685327
 S  10.00472736 -1.868891239 8.024289131
 S  -2.357534647 0.1376404613E-01 7.707712173
 S  0.8839988708 5.993674755 -0.9371222854
 S  10.27542782 5.032670021 -1.017957091
 S  -9.368166924 2.986512184 1.178689599
 S  2.419149160 -6.454356194 7.755917549
 S  -4.236293793 -10.67003918 8.511111259
 S  9.347925186 -1.512548208 -1.786186457
 S  -3.552023649 -7.529369354 3.795869350
 S  9.315638542 -9.837755203 6.754738808
 S  -10.30400562 -10.58560467 -0.5462497473
 S  0.9905421734 -3.551530361 -8.356365204
 S  5.370803356 -6.201728821 -4.284598351
 S  5.460347176 -4.856030941 6.598264694
 S  -10.78036404 1.365259647 -1.557416677
 S  5.193897247 -10.50797749 5.323659897
 S  -0.9203552604 6.256509304 -6.281573772
 S  -3.635521889 -3.454597712 7.499709129
 S  6.818237782 -5.944598198 -8.091778755
 S  1.555330753 -5.988587379 -5.252080441
 S  4.789558411 4.614196777 3.944143295
 S  7.211322308 -10.87042427 -9.198259354
 S  -0.4958330095 -2.791659117 5.896522522
 S  8.808848381 -10.76522636 -3.398687124
 S  -9.640405655 -5.829563618 1.263732910
 S  -5.928824425 3.418477774 -4.405844688
 S  1.583248138 8.141454697 5.362262249
 S  -8.175321579 8.001868248 5.936856270
 S  -7.384717941 2.138819933 -7.299022675
 S  7.584208965 5.226828575 5.909695625
 S  4.372312546 9.854681015 -7.306482315
 S  -10.87165642 5.921424866 0.7354785204
 S  6.180375576 10.33701134 2.172063589
 S  0.7531338334 -9.102230072 2.103186607
 S  6.309858322 5.381600380 -5.375374794
 S  7.651592255 3.769164562 1.253285766
 S  6.520042419 -3.881636620 -2.698196411
 S  -6.396292210 -3.807515621 9.655006409
 S  8.492918968 -9.029224396 10.39783096
 S  -5.222218990 -9.574320793 -10.24962902
 S  -1.405905962 6.844122887 6.096427917
 S  -6.511790276 -6.401272297 5.027744293
 S  -0.8913891912 4.883623600 -9.702448845
 S  4.302639008 7.711963654 -4.418390751
 S  -5.021017551 -1.149263024 -2.398016453
 S  6.987948418 -2.109790802 3.396221876
 S  3.568204165 -7.457711697 4.779116631
 S  -3.830867052 -0.9442424774 -5.494435787
 S  8.569236755 -7.139427662 -2.743836880
 S  8.632886887 -4.805978298 -5.271159172
 S  -3.873490334 -10.64082050 1.317782998
 S  -8.618785858 10.75520611 -3.670912266
 S  0.4202374220 3.649019003 -5.497808456
 S  10.05356216 3.511888266 3.761645794
 S  2.266785383 6.258050919 1.998806357
 S  -4.663848400 3.529620171 8.677906990
 S  2.573230982 -1.716898441 7.446758270
 S  6.573504925 5.328328609 -1.621930480
 S  -1.059924722 -5.664526463 7.981820107
 S  10.45983887 6.553779125 5.080135822
 S  5.705321312 -2.570944071 -1.338989735
 S  -6.361106873 -10.09878349 -1.181176901
 S  -5.495503426 -6.584039211 8.626368523
 S  10.57419109 9.149621964 -5.277592659
 S  5.017151356 0.5751262903 8.906827927
 S  -4.655202866 -4.499927998 -2.128217220
 S  6.928455830 -7.826435089 7.874367714
 S  -3.621081114 -1.479697227 10.44225025
 S  9.433808327 9.151820183 1.565304279
 S  -1.350823164 -9.937653542 -8.114127159
 S  -10.49878216 9.221969604 7.909403801
 S  -4.098625183 -7.253739357 7.194632530
 S  5.585870743 2.536725044 -3.443267584
 S  10.14501667 4.386880875 8.211816788
 S  -4.334799767 -8.532974243 -6.934141159
 S  -0.5215630308E-01 -6.369901180 -0.2778507173
 S  -2.750239134 1.264048457 -0.8178371787
 S  5.550874710 -6.491466999 -0.5875179768
 S  -9.377014160 -7.649062634 -1.789488554
 S  -10.60331726 -7.200029373 4.780690193
 S  2.489204407 1.608171225 1.868895888
 S  -6.762953281 -2.110779762 5.932154655
 S  3.126814604 6.432221889 -7.921726227
 S  7.191061974 1.634958029 4.162694931
 S  -0.8186486363 -9.991787910 -1.562004447
 S  -7.446603775 -9.545440674 -7.387368202
 S  2.624803543 -4.095211506 4.665220261
 S  -2.914483309 3.081526756 -6.696517467
 S  6.887430191 0.8305168152 -1.314522147
 S  6.146484852 7.396494865 -9.286408424
 S  -6.383016586 6.252935886 7.944400787
 S  -9.815712929 -10.23780918 10.33311749
 S  -10.23804092 8.313828468 -1.725257277
